<?xml version="1.0" encoding="UTF-8"?>

<!-- generated on 2024-04-27 07:42:01 by Eclipse SUMO polyconvert Version 1.19.0
<configuration xmlns:xsi="http://www.w3.org/2001/XMLSchema-instance" xsi:noNamespaceSchemaLocation="http://sumo.dlr.de/xsd/polyconvertConfiguration.xsd">

    <input>
        <net-file value="map.net.xml"/>
        <osm-files value="map.osm"/>
    </input>

    <output>
        <output-file value="map.poly.xml"/>
    </output>

</configuration>
-->

<additional xmlns:xsi="http://www.w3.org/2001/XMLSchema-instance" xsi:noNamespaceSchemaLocation="http://sumo.dlr.de/xsd/additional_file.xsd">
    <location netOffset="-300208.76,-3779303.30" convBoundary="-3814.94,-2745.67,19800.88,12779.68" origBoundary="108.791241,34.113370,109.046641,34.250291" projParameter="+proj=utm +zone=49 +ellps=WGS84 +datum=WGS84 +units=m +no_defs"/>

    <poly id="1009339841" type="leisure" color="207,245,201" fill="1" layer="-2.00" shape="4120.074732,4832.947373 4133.375766,4832.670356 4132.926156,4794.255080 4118.922677,4794.457958 4120.074732,4832.947373"/>
    <poly id="1009339841#1" type="sport" color="79,230,125" fill="1" layer="-2.00" shape="4120.074732,4832.947373 4133.375766,4832.670356 4132.926156,4794.255080 4118.922677,4794.457958 4120.074732,4832.947373"/>
    <poly id="1009989454" type="school" color="237,199,199" fill="1" layer="-2.00" shape="3012.828086,4972.047663 3124.787225,4970.724030 3119.184173,4834.784047 3021.897862,4836.676889 3009.367254,4848.645468 3012.828086,4972.047663"/>
    <poly id="1009989455" type="leisure" color="207,245,201" fill="1" layer="-2.00" shape="3020.488410,4958.705335 3017.129835,4955.091857 3015.772371,4870.470007 3057.862197,4869.688386 3058.983619,4957.588436 3020.488410,4958.705335"/>
    <poly id="1009989459" type="landuse" color="194,194,130" fill="1" layer="-3.00" shape="2975.186663,4398.048716 2982.948306,4397.886143 2985.536018,4380.977349 2986.412302,4369.097533 2986.213283,4343.303855 2970.588506,4343.631122 2971.478770,4369.843062 2972.858928,4382.019587 2975.186663,4398.048716"/>
    <poly id="1009989460" type="building" color="255,230,230" fill="1" layer="-1.00" shape="2925.495786,3799.248131 2925.028813,3756.261523 2892.230251,3757.470115 2892.579489,3774.139852 2905.181479,3773.875843 2905.723546,3799.751091 2925.495786,3799.248131"/>
    <poly id="1009989460#1" type="tourism" color="207,245,201" fill="1" layer="-2.00" shape="2925.495786,3799.248131 2925.028813,3756.261523 2892.230251,3757.470115 2892.579489,3774.139852 2905.181479,3773.875843 2905.723546,3799.751091 2925.495786,3799.248131"/>
    <poly id="1010275753" type="building" color="255,230,230" fill="1" layer="-1.00" shape="3782.474604,4764.189420 3782.398296,4753.017549 3776.508173,4753.140435 3776.281749,4746.265767 3759.881793,4746.530270 3759.788849,4753.566943 3750.449678,4753.684140 3750.837806,4764.771837 3782.474604,4764.189420"/>
    <poly id="1010275754" type="building" color="255,230,230" fill="1" layer="-1.00" shape="3858.084060,4763.333521 3857.620758,4749.961664 3792.828904,4750.847084 3793.296231,4764.407488 3858.084060,4763.333521"/>
    <poly id="1010275755" type="leisure" color="207,245,201" fill="1" layer="-2.00" shape="4036.585554,4614.912641 4062.689332,4614.313332 4061.843737,4565.753674 4035.350362,4566.250135 4036.585554,4614.912641"/>
    <poly id="1010275755#1" type="sport" color="79,230,125" fill="1" layer="-2.00" shape="4036.585554,4614.912641 4062.689332,4614.313332 4061.843737,4565.753674 4035.350362,4566.250135 4036.585554,4614.912641"/>
    <poly id="1010275756" type="leisure" color="207,245,201" fill="1" layer="-2.00" shape="4074.198752,4592.647647 4079.203173,4588.959471 4087.541829,4592.158893 4090.448487,4588.259215 4099.384044,4587.795707 4098.826689,4580.517398 4091.644579,4580.600415 4090.725721,4565.706844 4080.955659,4565.510899 4080.597345,4548.308829 4072.944195,4548.801118 4074.198752,4592.647647"/>
    <poly id="1010275757" type="building" color="255,230,230" fill="1" layer="-1.00" shape="4011.056615,4613.447326 4010.165620,4549.887118 3968.132906,4551.251267 3964.962638,4551.350629 3964.878311,4558.808747 3934.906778,4559.677569 3932.992365,4568.705056 3932.427347,4576.106622 3932.513160,4584.204751 3934.044561,4592.195076 3937.627472,4601.274406 3943.614386,4610.214860 3950.400901,4618.583861 3950.522863,4608.950184 3979.202119,4608.030663 3979.412209,4614.128961 4011.056615,4613.447326"/>
    <poly id="1010275758" type="building" color="255,230,230" fill="1" layer="-1.00" shape="3974.930411,4536.252357 3974.217992,4516.228237 4051.907688,4513.766171 4051.590055,4495.420388 3961.602465,4497.206706 3958.652485,4497.257094 3959.244295,4515.475117 3903.209560,4516.698656 3903.676884,4536.017761 3903.707407,4537.481767 3967.684430,4536.370084 3974.930411,4536.252357"/>
    <poly id="1010275760" type="building" color="255,230,230" fill="1" layer="-1.00" shape="3965.000444,4486.350793 3964.875097,4482.991386 3964.258043,4466.216341 3954.679161,4466.349409 3910.822228,4466.930723 3910.887430,4470.058374 3875.191234,4471.046712 3875.771141,4491.339899 3890.361341,4490.946924 3916.868991,4490.238950 3916.965582,4487.352034 3961.377780,4486.426296 3965.000444,4486.350793"/>
    <poly id="1010275762" type="building" color="255,230,230" fill="1" layer="-1.00" shape="4028.254004,4457.581776 4027.662221,4445.555197 3999.264997,4446.313320 3958.212827,4447.401848 3958.683478,4459.364378 4028.254004,4457.581776"/>
    <poly id="1010275763" type="building" color="255,230,230" fill="1" layer="-1.00" shape="3958.612415,4443.565478 3958.339651,4430.478150 3954.007640,4430.590629 3929.748100,4431.207242 3929.823748,4428.642541 3919.183365,4428.731194 3919.642312,4444.111469 3954.279254,4443.622502 3958.612415,4443.565478"/>
    <poly id="1010275765" type="building" color="255,230,230" fill="1" layer="-1.00" shape="4005.839066,4422.797547 4005.391895,4409.303313 3965.512337,4410.467227 3965.382600,4406.897093 3952.275687,4407.225740 3952.844586,4423.901927 3953.932314,4423.879256 3998.547602,4422.949480 4005.839066,4422.797547"/>
    <poly id="1010275769" type="kindergarten" color="237,199,199" fill="1" layer="-2.00" shape="3638.865852,4431.627383 3743.436882,4429.078801 3742.996661,4415.051812 3727.562631,4415.229604 3726.413238,4384.895503 3699.795885,4363.570040 3666.177656,4349.259063 3638.865852,4431.627383"/>
    <poly id="1010275770" type="building" color="255,230,230" fill="1" layer="-1.00" shape="3881.146528,4685.448392 3880.968487,4674.256458 3888.757753,4674.105138 3888.522598,4663.269461 3904.631649,4663.199885 3905.143519,4673.597057 3910.341198,4673.433212 3910.872486,4684.762024 3881.146528,4685.448392"/>
    <poly id="1010275771" type="building" color="255,230,230" fill="1" layer="-1.00" shape="3852.640114,4641.582032 3852.462274,4630.401189 3860.251577,4630.249846 3860.016392,4619.414169 3876.125522,4619.344548 3876.637421,4629.741719 3881.835125,4629.577859 3882.366445,4640.906671 3852.640114,4641.582032"/>
    <poly id="1010275772" type="building" color="255,230,230" fill="1" layer="-1.00" shape="3833.944289,4595.003478 3833.669892,4584.057661 3841.430655,4583.862517 3841.158118,4573.005427 3857.583017,4572.596321 3857.851603,4583.264864 3863.003937,4583.135229 3863.273014,4594.269785 3833.944289,4595.003478"/>
    <poly id="1010275773" type="building" color="255,230,230" fill="1" layer="-1.00" shape="3806.597992,4548.860591 3806.323566,4537.914773 3814.075382,4537.730892 3813.802585,4526.862711 3830.236784,4526.453369 3830.496181,4537.122104 3835.648541,4536.992455 3835.926864,4548.126819 3806.597992,4548.860591"/>
    <poly id="1010275774" type="building" color="255,230,230" fill="1" layer="-1.00" shape="3772.174663,4503.875125 3771.900200,4492.929307 3779.652055,4492.745399 3779.379221,4481.877218 3795.813502,4481.467819 3796.072934,4492.136554 3801.225319,4492.006888 3801.503681,4503.141252 3772.174663,4503.875125"/>
    <poly id="1010275775" type="building" color="255,230,230" fill="1" layer="-1.00" shape="3741.742799,4463.244800 3741.477522,4452.298789 3749.229180,4452.103767 3748.956546,4441.246676 3765.390899,4440.837227 3765.650363,4451.505963 3770.802772,4451.376281 3771.081166,4462.510645 3741.742799,4463.244800"/>
    <poly id="1011288853" type="building" color="255,230,230" fill="1" layer="-1.00" shape="3613.100056,4646.314284 3612.548353,4634.908221 3603.211836,4635.158652 3603.177472,4630.421460 3592.387263,4630.391573 3592.944177,4653.969627 3600.155296,4653.952195 3599.933054,4646.400592 3613.100056,4646.314284"/>
    <poly id="1011288854" type="building" color="255,230,230" fill="1" layer="-1.00" shape="3640.777028,4629.192588 3640.579675,4616.647356 3631.357879,4616.651255 3631.136625,4611.795913 3620.102840,4612.026281 3620.421221,4636.108623 3627.499134,4635.894269 3627.551964,4629.590750 3640.777028,4629.192588"/>
    <poly id="1011288855" type="building" color="255,230,230" fill="1" layer="-1.00" shape="3659.666144,4599.283431 3659.209518,4586.244303 3650.680424,4586.300295 3650.603556,4582.618094 3639.827839,4582.843050 3640.317554,4606.300446 3646.206384,4606.110932 3646.199985,4599.620023 3659.666144,4599.283431"/>
    <poly id="1011288856" type="building" color="255,230,230" fill="1" layer="-1.00" shape="3661.016280,4522.150540 3660.180610,4509.507678 3652.471613,4509.535450 3652.518706,4505.606554 3640.728924,4505.852672 3641.526709,4529.048430 3648.111101,4529.044125 3647.853045,4522.425320 3661.016280,4522.150540"/>
    <poly id="1011288857" type="building" color="255,230,230" fill="1" layer="-1.00" shape="3642.681774,4494.261177 3642.047487,4481.547537 3633.512971,4481.348448 3633.416649,4476.734607 3622.135210,4477.036707 3622.962908,4501.663200 3629.415489,4501.528485 3629.272392,4494.674268 3642.681774,4494.261177"/>
    <poly id="1011288858" type="residential" color="235,235,227" fill="1" layer="-3.00" shape="3759.976939,4342.674781 3758.568155,4353.389415 3763.560746,4365.046793 3831.034716,4441.786988 3840.617369,4445.370805 3850.591693,4441.645438 3964.141224,4363.704931 3969.339776,4352.511916 3969.367644,4341.016116 3904.216605,4245.175099 3896.803502,4241.268583 3885.310158,4243.805018 3759.976939,4342.674781"/>
    <poly id="1011288859" type="building" color="255,230,230" fill="1" layer="-1.00" shape="3874.163657,4410.707093 3877.633737,4387.389083 3860.568012,4383.617290 3855.998281,4407.268922 3874.163657,4410.707093"/>
    <poly id="1011288860" type="building" color="255,230,230" fill="1" layer="-1.00" shape="3918.353607,4372.115651 3921.861093,4347.931416 3903.656668,4344.394098 3899.004826,4368.979455 3918.353607,4372.115651"/>
    <poly id="1011288861" type="building" color="255,230,230" fill="1" layer="-1.00" shape="3830.878085,4361.756373 3835.192820,4340.029616 3817.684750,4336.278215 3812.909379,4358.025685 3830.878085,4361.756373"/>
    <poly id="1011288862" type="building" color="255,230,230" fill="1" layer="-1.00" shape="3893.188095,4311.147480 3898.388229,4286.761512 3880.737691,4283.257066 3875.220283,4307.904864 3893.188095,4311.147480"/>
    <poly id="1011288863" type="landuse" color="194,194,130" fill="1" layer="-3.00" shape="3678.466744,4091.003225 3794.852227,4086.533454 3796.366078,4083.062189 3787.086929,4072.381860 3677.790208,4076.703776 3678.466744,4091.003225"/>
    <poly id="1011288866" type="building" color="255,230,230" fill="1" layer="-1.00" shape="3133.585058,4453.074132 3133.051677,4438.605226 3111.010909,4424.508816 3097.485607,4424.237144 3081.336405,4415.365665 3068.847529,4415.704799 3069.028447,4431.834366 3082.387051,4431.632366 3082.376763,4435.105580 3095.645666,4434.583696 3095.908872,4439.227343 3109.983208,4443.260105 3110.142618,4447.351133 3124.889194,4453.100796 3133.585058,4453.074132"/>
    <poly id="1011288867" type="building" color="255,230,230" fill="1" layer="-1.00" shape="3302.017602,4480.885013 3301.510919,4467.680481 3271.883098,4468.688456 3272.002899,4481.912177 3302.017602,4480.885013"/>
    <poly id="1011288868" type="building" color="255,230,230" fill="1" layer="-1.00" shape="3428.605155,4475.431431 3428.331650,4462.344084 3402.573894,4462.316529 3402.644366,4465.688184 3368.906416,4466.393407 3368.929853,4476.778605 3428.605155,4475.431431"/>
    <poly id="1011288870" type="building" color="255,230,230" fill="1" layer="-1.00" shape="3300.967994,4452.301925 3299.849851,4440.286337 3271.635028,4440.954076 3271.585619,4438.591698 3258.225415,4438.715794 3258.238546,4450.366139 3269.927021,4450.121665 3269.917300,4453.184317 3300.967994,4452.301925"/>
    <poly id="1011288871" type="landuse" color="194,194,130" fill="1" layer="-3.00" shape="2969.867480,4298.641463 2985.027779,4298.590228 2982.264127,4160.471541 2966.977336,4160.658565 2969.867480,4298.641463"/>
    <poly id="1011478064" type="building" color="255,230,230" fill="1" layer="-1.00" shape="3300.316897,4418.961491 3299.835200,4404.746717 3270.966825,4404.595931 3271.276035,4419.380201 3300.316897,4418.961491"/>
    <poly id="1011478065" type="building" color="255,230,230" fill="1" layer="-1.00" shape="3213.671810,4387.941223 3213.428876,4371.480093 3153.282499,4372.827352 3153.345354,4389.491981 3213.671810,4387.941223"/>
    <poly id="1011478066" type="building" color="255,230,230" fill="1" layer="-1.00" shape="3302.864073,4382.447348 3302.274435,4369.244552 3270.580921,4369.829682 3270.775849,4383.118405 3302.864073,4382.447348"/>
    <poly id="1011478067" type="building" color="255,230,230" fill="1" layer="-1.00" shape="3374.564759,4445.026628 3374.391013,4432.303356 3356.547238,4433.231169 3326.883254,4435.160673 3317.943309,4434.981440 3318.036435,4452.666236 3327.337433,4452.471756 3374.564759,4445.026628"/>
    <poly id="1011478068" type="building" color="255,230,230" fill="1" layer="-1.00" shape="3534.921425,4472.566629 3534.610279,4461.643758 3477.901189,4464.159915 3477.888380,4475.022982 3534.921425,4472.566629"/>
    <poly id="1011478069" type="building" color="255,230,230" fill="1" layer="-1.00" shape="3474.932669,4477.448145 3474.574593,4463.841065 3444.859635,4460.678289 3445.028137,4472.713726 3474.932669,4477.448145"/>
    <poly id="1011478070" type="building" color="255,230,230" fill="1" layer="-1.00" shape="3582.367255,4447.764148 3584.770851,4440.978804 3584.710640,4433.679023 3551.822518,4434.454603 3552.014140,4448.486795 3582.367255,4447.764148"/>
    <poly id="1011478071" type="landuse" color="194,194,130" fill="1" layer="-3.00" shape="3625.296633,4093.067230 3625.006073,4079.148075 3329.863073,4090.273587 3330.159172,4104.436755 3625.296633,4093.067230"/>
    <poly id="1011478072" type="landuse" color="194,194,130" fill="1" layer="-3.00" shape="3277.559813,4107.334083 3276.932873,4092.789477 3010.772934,4102.453522 3010.814492,4117.210121 3277.559813,4107.334083"/>
    <poly id="1011478073" type="building" color="255,230,230" fill="1" layer="-1.00" shape="2768.493783,4066.120286 2767.157048,4028.755265 2729.271436,4029.660597 2730.055216,4067.037218 2768.493783,4066.120286"/>
    <poly id="1012146279" type="natural" color="140,196,107" fill="0" layer="-4.00" shape="3520.113114,4112.395427 3506.452653,4110.528166 3330.952838,4116.814189"/>
    <poly id="1012146280" type="natural" color="140,196,107" fill="0" layer="-4.00" shape="3622.419191,4105.876364 3581.686026,4106.859916 3566.469605,4110.417614"/>
    <poly id="1012146281" type="natural" color="140,196,107" fill="0" layer="-4.00" shape="3754.772755,4100.728791 3679.344957,4103.034925"/>
    <poly id="1012146282" type="natural" color="140,196,107" fill="0" layer="-4.00" shape="3274.838277,4119.196950 3109.253110,4125.512806 3074.514514,4130.023628 3060.825546,4130.765127"/>
    <poly id="1012527969" type="kindergarten" color="237,199,199" fill="1" layer="-2.00" shape="2779.799952,4903.521304 2768.554450,4847.911599 2752.341589,4841.705051 2715.081613,4813.370995 2679.395029,4813.010063 2681.325722,4905.032080 2779.799952,4903.521304"/>
    <poly id="1013447424" type="landuse" color="194,194,130" fill="1" layer="-3.00" shape="2938.075276,4120.198240 2937.470818,4105.431234 2442.897629,4124.736805 2443.365890,4139.129432 2938.075276,4120.198240"/>
    <poly id="1013535601" type="landuse" color="194,194,130" fill="1" layer="-3.00" shape="3819.911630,4085.311796 3832.038582,4084.404256 3822.719728,4072.260080 3809.753887,4073.185126 3819.911630,4085.311796"/>
    <poly id="1014212818" type="amenity" color="237,199,199" fill="1" layer="-1.00" shape="4296.528785,4863.448871 4301.226007,4861.398275 4297.520040,4853.031522 4292.832032,4855.081927 4296.528785,4863.448871"/>
    <poly id="1014212818#1" type="building" color="255,230,230" fill="1" layer="-1.00" shape="4296.528785,4863.448871 4301.226007,4861.398275 4297.520040,4853.031522 4292.832032,4855.081927 4296.528785,4863.448871"/>
    <poly id="1014212867" type="natural" color="140,196,107" fill="0" layer="-4.00" shape="3362.959902,3795.853403 3334.129211,3841.272009"/>
    <poly id="1014212869" type="natural" color="140,196,107" fill="0" layer="-4.00" shape="3302.915129,4063.807593 3302.251833,4036.936295"/>
    <poly id="1014212870" type="natural" color="140,196,107" fill="0" layer="-4.00" shape="3080.649134,3963.124809 3006.543252,3964.765041"/>
    <poly id="1014212871" type="building" color="255,230,230" fill="1" layer="-1.00" shape="3698.536999,4051.338598 3713.560064,4027.457679 3569.523576,3917.908353 3119.091857,3638.022457 3093.288966,3675.611396 3074.690274,3696.061916 3052.094751,3712.823561 3029.273324,3725.839603 3007.704585,3731.728142 2986.521845,3735.788932 2994.442512,4069.985093 3087.910368,4067.695301 3120.433327,4070.997997 3438.020258,4059.219429 3470.552725,4056.364958 3698.536999,4051.338598"/>
    <poly id="1014488832" type="residential" color="235,235,227" fill="1" layer="-3.00" shape="2683.414493,3410.796464 2682.297564,3346.097769 2703.035163,3321.207671 2685.898613,3307.142388 2675.828469,3307.220405 2675.398965,3296.854789 2500.235514,3299.275805 2502.171366,3413.478230 2683.414493,3410.796464"/>
    <poly id="1014488833" type="kindergarten" color="237,199,199" fill="1" layer="-2.00" shape="2687.195984,4045.822007 2686.025710,4023.444000 2680.547146,4016.390981 2666.252725,4015.536844 2650.268139,4011.489287 2638.403677,4004.692310 2635.271871,4032.131522 2641.171633,4047.830459 2687.195984,4045.822007"/>
    <poly id="1014488836" type="building" color="255,230,230" fill="1" layer="-1.00" shape="2512.632699,4032.674710 2512.308659,4020.753442 2434.155512,4022.893727 2434.488637,4034.803712 2512.632699,4032.674710"/>
    <poly id="1014488837" type="building" color="255,230,230" fill="1" layer="-1.00" shape="2633.465931,4027.375995 2632.978637,4014.259805 2577.680741,4015.164902 2577.907414,4020.253151 2524.314027,4021.078411 2524.545679,4032.113947 2579.464511,4030.728267 2579.345518,4028.134330 2633.465931,4027.375995"/>
    <poly id="1014488839" type="building" color="255,230,230" fill="1" layer="-1.00" shape="2558.063971,3979.992123 2557.768117,3965.895475 2512.496064,3966.856826 2512.792218,3980.964566 2558.063971,3979.992123"/>
    <poly id="1014488840" type="building" color="255,230,230" fill="1" layer="-1.00" shape="2508.851137,3933.812146 2508.566994,3919.837305 2439.463474,3921.243823 2439.747953,3935.229757 2508.851137,3933.812146"/>
    <poly id="1014488841" type="building" color="255,230,230" fill="1" layer="-1.00" shape="2505.772730,3872.838348 2505.408592,3855.492041 2429.787237,3857.046520 2430.142297,3874.393025 2505.772730,3872.838348"/>
    <poly id="1014488842" type="building" color="255,230,230" fill="1" layer="-1.00" shape="2506.063919,3841.896931 2505.508753,3824.676690 2483.665585,3825.379357 2484.221024,3842.610690 2506.063919,3841.896931"/>
    <poly id="1014488844" type="building" color="255,230,230" fill="1" layer="-1.00" shape="2506.184203,3812.479239 2505.709255,3792.050606 2430.423224,3793.786637 2430.898569,3814.226365 2506.184203,3812.479239"/>
    <poly id="1014488845" type="building" color="255,230,230" fill="1" layer="-1.00" shape="2510.944217,3782.653469 2510.063241,3763.531578 2427.738749,3765.648377 2428.142615,3784.880154 2510.944217,3782.653469"/>
    <poly id="1014488847" type="building" color="255,230,230" fill="1" layer="-1.00" shape="2501.172169,3715.628694 2500.843381,3698.647812 2425.679607,3700.092772 2426.008765,3717.084748 2501.172169,3715.628694"/>
    <poly id="1014488848" type="building" color="255,230,230" fill="1" layer="-1.00" shape="2506.681342,3685.021587 2506.205157,3666.290653 2427.520790,3668.308796 2427.997364,3687.050825 2506.681342,3685.021587"/>
    <poly id="1014488849" type="building" color="255,230,230" fill="1" layer="-1.00" shape="2576.157942,3682.853332 2575.645576,3664.589189 2516.920712,3666.221073 2517.423740,3684.474321 2576.157942,3682.853332"/>
    <poly id="1014488851" type="building" color="255,230,230" fill="1" layer="-1.00" shape="2566.507218,3651.477001 2565.921966,3634.135345 2506.568256,3636.135545 2507.153385,3653.466111 2566.507218,3651.477001"/>
    <poly id="1014488852" type="building" color="255,230,230" fill="1" layer="-1.00" shape="2655.270458,3642.335901 2654.771763,3629.552833 2622.858439,3630.777055 2623.040060,3635.477891 2604.636728,3636.185758 2605.025264,3646.352514 2585.276464,3647.110840 2585.856812,3662.022604 2604.951275,3661.289101 2604.549564,3650.933991 2623.865301,3650.195886 2623.615306,3643.554708 2655.270458,3642.335901"/>
    <poly id="1014488853" type="building" color="255,230,230" fill="1" layer="-1.00" shape="2530.031665,3621.207336 2529.736742,3604.958076 2431.853588,3606.724453 2432.148914,3622.984809 2530.031665,3621.207336"/>
    <poly id="1014488854" type="building" color="255,230,230" fill="1" layer="-1.00" shape="2596.196216,3619.408362 2595.735897,3601.864361 2537.146136,3603.360108 2537.597810,3620.926486 2596.196216,3619.408362"/>
    <poly id="1014488855" type="building" color="255,230,230" fill="1" layer="-1.00" shape="2664.133896,3618.160746 2663.759663,3602.956172 2603.960621,3604.399194 2604.335416,3619.625953 2664.133896,3618.160746"/>
    <poly id="1014488856" type="building" color="255,230,230" fill="1" layer="-1.00" shape="2687.917049,3976.868273 2690.438155,3966.474051 2633.600583,3949.391403 2630.955969,3959.610701 2687.917049,3976.868273"/>
    <poly id="1014488857" type="building" color="255,230,230" fill="1" layer="-1.00" shape="2769.853010,3958.073604 2765.807112,3947.650650 2705.224423,3968.349830 2709.294719,3979.493482 2769.853010,3958.073604"/>
    <poly id="1014488858" type="building" color="255,230,230" fill="1" layer="-1.00" shape="2634.434888,3924.097513 2634.061562,3908.060720 2575.139058,3909.430187 2575.512717,3925.478073 2634.434888,3924.097513"/>
    <poly id="1014488859" type="building" color="255,230,230" fill="1" layer="-1.00" shape="2690.014367,3923.841535 2689.790422,3912.284342 2659.202197,3912.881537 2659.435630,3924.449628 2690.014367,3923.841535"/>
    <poly id="1014488860" type="building" color="255,230,230" fill="1" layer="-1.00" shape="2737.353560,3922.493737 2737.155785,3911.302161 2706.345388,3911.859478 2706.552418,3923.050861 2737.353560,3922.493737"/>
    <poly id="1014488861" type="building" color="255,230,230" fill="1" layer="-1.00" shape="2738.346227,3894.622316 2755.739898,3875.694256 2644.405035,3772.440884 2628.179318,3789.891088 2738.346227,3894.622316"/>
    <poly id="1014488862" type="building" color="255,230,230" fill="1" layer="-1.00" shape="2819.174818,3921.521882 2818.574742,3903.892053 2759.858875,3905.877398 2760.458828,3923.496137 2819.174818,3921.521882"/>
    <poly id="1014488863" type="building" color="255,230,230" fill="1" layer="-1.00" shape="2839.018433,3884.389821 2838.107759,3868.220060 2780.721933,3868.990130 2780.964851,3884.097592 2839.018433,3884.389821"/>
    <poly id="1014488864" type="building" color="255,230,230" fill="1" layer="-1.00" shape="2613.749911,3886.361696 2613.235482,3870.194713 2555.715224,3872.034180 2556.238971,3888.200972 2613.749911,3886.361696"/>
    <poly id="1014488865" type="building" color="255,230,230" fill="1" layer="-1.00" shape="2680.035867,3886.924060 2679.679492,3869.932672 2620.682280,3869.949709 2621.464303,3887.442582 2680.035867,3886.924060"/>
    <poly id="1014488866" type="building" color="255,230,230" fill="1" layer="-1.00" shape="2584.307181,3850.573927 2583.828364,3835.227290 2545.247140,3836.425305 2545.735472,3851.782840 2584.307181,3850.573927"/>
    <poly id="1014488867" type="building" color="255,230,230" fill="1" layer="-1.00" shape="2633.308682,3849.312803 2632.771552,3834.699719 2599.521751,3835.929913 2600.068385,3850.553895 2633.308682,3849.312803"/>
    <poly id="1014488868" type="building" color="255,230,230" fill="1" layer="-1.00" shape="2847.292037,3848.343552 2846.883294,3833.239571 2809.276024,3834.260749 2809.684828,3849.364731 2847.292037,3848.343552"/>
    <poly id="1014488869" type="building" color="255,230,230" fill="1" layer="-1.00" shape="2606.048950,3812.513829 2605.698159,3797.552864 2546.535966,3798.960780 2546.896302,3813.932646 2606.048950,3812.513829"/>
    <poly id="1014488870" type="building" color="255,230,230" fill="1" layer="-1.00" shape="2618.954595,3776.170399 2618.611153,3759.800106 2561.180453,3761.105014 2561.737514,3777.981239 2618.954595,3776.170399"/>
    <poly id="1014488871" type="building" color="255,230,230" fill="1" layer="-1.00" shape="2631.271627,3738.141676 2630.799324,3722.661757 2592.134210,3723.839116 2592.606809,3739.330127 2631.271627,3738.141676"/>
    <poly id="1014488872" type="building" color="255,230,230" fill="1" layer="-1.00" shape="2683.996529,3740.686297 2683.139512,3724.448836 2646.113029,3725.480649 2646.457582,3741.906395 2683.996529,3740.686297"/>
    <poly id="1014488873" type="building" color="255,230,230" fill="1" layer="-1.00" shape="2680.167340,3702.785475 2679.573686,3685.033454 2641.131770,3686.305783 2641.716278,3704.057998 2680.167340,3702.785475"/>
    <poly id="1014488874" type="building" color="255,230,230" fill="1" layer="-1.00" shape="2728.555221,3698.175723 2728.120471,3680.520236 2687.477719,3681.516740 2687.912777,3699.183320 2728.555221,3698.175723"/>
    <poly id="1014488875" type="building" color="255,230,230" fill="1" layer="-1.00" shape="2590.353477,3400.709421 2590.063901,3388.665390 2512.951144,3390.527637 2513.241284,3402.593851 2590.353477,3400.709421"/>
    <poly id="1014488876" type="building" color="255,230,230" fill="1" layer="-1.00" shape="2677.387797,3397.851930 2677.069789,3383.567138 2601.152713,3385.270434 2601.470605,3399.544138 2677.387797,3397.851930"/>
    <poly id="1014488877" type="building" color="255,230,230" fill="1" layer="-1.00" shape="2536.307842,3365.648739 2535.960439,3349.533737 2511.124506,3350.077154 2511.481405,3366.203055 2536.307842,3365.648739"/>
    <poly id="1014488878" type="building" color="255,230,230" fill="1" layer="-1.00" shape="2566.964496,3365.149691 2566.560147,3349.834788 2542.582997,3350.426678 2543.079576,3365.739647 2566.964496,3365.149691"/>
    <poly id="1014488879" type="building" color="255,230,230" fill="1" layer="-1.00" shape="2615.568767,3363.297801 2615.129249,3348.061310 2590.395431,3348.635663 2590.847000,3364.005053 2615.568767,3363.297801"/>
    <poly id="1014488880" type="building" color="255,230,230" fill="1" layer="-1.00" shape="2671.724779,3363.107513 2671.346863,3347.725488 2621.714688,3348.943989 2622.092918,3364.337107 2671.724779,3363.107513"/>
    <poly id="1014488881" type="building" color="255,230,230" fill="1" layer="-1.00" shape="2534.656684,3329.599636 2534.262850,3315.227660 2511.024307,3315.859604 2511.408957,3330.231774 2534.656684,3329.599636"/>
    <poly id="1014488883" type="building" color="255,230,230" fill="1" layer="-1.00" shape="2567.354616,3329.235293 2567.076760,3315.992664 2541.738485,3316.335713 2542.260031,3329.761860 2567.354616,3329.235293"/>
    <poly id="1014488884" type="building" color="255,230,230" fill="1" layer="-1.00" shape="2604.604166,3328.209691 2604.192554,3314.304118 2579.155808,3314.951425 2579.513539,3328.924704 2604.604166,3328.209691"/>
    <poly id="1014488885" type="building" color="255,230,230" fill="1" layer="-1.00" shape="2636.507612,3327.784585 2636.192659,3314.087808 2611.458754,3314.662101 2611.782962,3328.358685 2636.507612,3327.784585"/>
    <poly id="1014488886" type="building" color="255,230,230" fill="1" layer="-1.00" shape="2667.259039,3326.962103 2667.025010,3313.163768 2642.410171,3313.258361 2642.828240,3327.474481 2667.259039,3326.962103"/>
    <poly id="1014488887" type="residential" color="235,235,227" fill="1" layer="-3.00" shape="2634.997388,3296.237453 2633.876610,3264.349278 2588.105289,3215.733117 2498.114523,3216.678309 2500.402905,3298.462293 2634.997388,3296.237453"/>
    <poly id="1014488888" type="building" color="255,230,230" fill="1" layer="-1.00" shape="2576.996861,3236.227206 2576.620721,3220.057334 2506.243541,3221.667274 2506.619803,3237.837148 2576.996861,3236.227206"/>
    <poly id="1014488889" type="building" color="255,230,230" fill="1" layer="-1.00" shape="2632.436082,3284.496280 2632.018553,3270.746176 2600.513288,3271.695532 2600.931096,3285.456728 2632.436082,3284.496280"/>
    <poly id="1014488890" type="building" color="255,230,230" fill="1" layer="-1.00" shape="2543.669346,3287.479237 2543.461364,3272.293364 2514.066274,3272.710513 2514.274304,3287.896387 2543.669346,3287.479237"/>
    <poly id="1014962658" type="amenity" color="237,199,199" fill="1" layer="-1.00" shape="2217.115990,3182.024779 2215.516182,3113.807606 2119.398550,3117.326225 2116.552016,2988.096741 2391.807542,2991.855304 2392.271741,3000.344993 2398.144563,3000.221676 2454.577895,3055.315113 2491.527940,3054.029121 2514.069142,3081.229132 2480.459077,3097.502026 2405.910927,3097.746643 2406.118714,3179.241457 2217.115990,3182.024779"/>