<?xml version="1.0" encoding="UTF-8"?>

<!-- generated on 2024-04-27 07:50:20.253689 by randomTrips.py v1_19_0+0000-baa66a0f364
<configuration>
    <end value="100.0"/>
    <length value="True"/>
    <net-file value="map.net.xml"/>
    <route-file value="map.rou.xml"/>
</configuration>
-->

<!-- generated on 2024-04-27 07:50:20 by Eclipse SUMO duarouter Version 1.19.0
<configuration xmlns:xsi="http://www.w3.org/2001/XMLSchema-instance" xsi:noNamespaceSchemaLocation="http://sumo.dlr.de/xsd/duarouterConfiguration.xsd">

    <input>
        <net-file value="map.net.xml"/>
        <route-files value="trips.trips.xml"/>
    </input>

    <output>
        <output-file value="map.rou.xml"/>
        <alternatives-output value="NUL"/>
    </output>

    <time>
        <begin value="0"/>
        <end value="100.0"/>
    </time>

    <report>
        <no-warnings value="true"/>
        <ignore-errors value="true"/>
        <no-step-log value="true"/>
    </report>

</configuration>
-->

<routes xmlns:xsi="http://www.w3.org/2001/XMLSchema-instance" xsi:noNamespaceSchemaLocation="http://sumo.dlr.de/xsd/routes_file.xsd">
    <vehicle id="0" depart="0.00">
        <route edges="334971100#3 775189155#0 764285483#2 -158798929#6 -158798929#5 -158798929#4 -158798929#3 -158798929#2 158798925#1 -158798932#6"/>
    </vehicle>
    <vehicle id="1" depart="1.00">
        <route edges="1016165551#0 230061209#8 230061209#9 781583888#0 271757268#13 271757268#14 271757268#15 271757268#16 271757268#17 271757268#18 318889170#0 318889170#1 335531746#0 335531746#1 335531746#2 335531746#3 295180934#0 1015248028#3"/>
    </vehicle>
    <vehicle id="4" depart="4.00">
        <route edges="230059418#0 230059418#1 230059418#2 230059418#3 334971104#2 334971104#3 334971104#4 230058671#1 230058671#2 230058671#3 230058671#4 230058671#5 -230058671#5"/>
    </vehicle>
    <vehicle id="5" depart="5.00">
        <route edges="1014514160#0 375030009#2 334648167#1 334648167#2 230162642#10 230162642#11 230162642#12 768807497#2 768807497#3 768807497#4 768807497#5 335561985#19 335531755#0 335531755#1 764285479#0 764285479#1 764285479#2 764285479#3 764285479#4 764285479#5 764285483#0 764285483#1 764285483#2 764285483#3 764285483#4 764285483#5 257221752#2 257222260#0"/>
    </vehicle>
    <vehicle id="6" depart="6.00">
        <route edges="-158798932#7 -158798925#1 -158798929#1 764286723#5 764286723#6 1015248028#0 1015248028#1 230164323#2 -271701496#1 -271701496#0 318889165#1 1015227217 768807497#1 768807497#2 230162642#0 230162642#1 230162642#2 230162638#0 230162638#1 1014212868#2 1013535602#2 1013535602#3"/>
    </vehicle>
    <vehicle id="7" depart="7.00">
        <route edges="334971104#0 334971104#1 334971104#2 334971104#3 334971104#4 -230058671#0 271757276#4"/>
    </vehicle>
    <vehicle id="8" depart="8.00">
        <route edges="1014514160#0 375030009#2 334648167#1 334648167#2 230162642#10 230162642#11 230162642#12 768807497#2 768807497#3 768807497#4 768807497#5 335561985#19 318889170#1 335531746#0 335531746#1 335531746#2 335531746#3 295180934#0 295180934#1 295180935#0"/>
    </vehicle>
    <vehicle id="9" depart="9.00">
        <route edges="550169298#1 550169298#2 257221751#6 28257724#1 28257724#2 28257724#3 550169296#6 550169296#7 550169296#8 550169296#9 550169296#10 422148128#0 422148128#1 422148128#2 422148128#3 422148128#4 230061077#0 230061077#1 230061077#2 343659153#0 -1226933214#0 -1226933212"/>
    </vehicle>
    <vehicle id="10" depart="10.00">
        <route edges="550169297#2 550169297#3 230061209#0 230061209#1 230061209#2 230061209#3 230061209#4 230061209#5 230061209#6 230061209#7 230061209#8 230061209#9 781583888#0 271757268#13 271757268#14 271757268#15 271757268#16 271757268#17 271757268#18 334648169#0 334648169#1 334648169#2 334648169#3 334648169#4 334648169#5 334648169#6 230162637#1 778783521#5 778783521#6 778783521#7 -387313830#1 -387313830#0 -375030011#1 375030012#1"/>
    </vehicle>
    <vehicle id="11" depart="11.00">
        <route edges="1226933212 1016165559#1 1016165559#2 1016165559#3 1016165559#4 1016165559#5 1016165559#6 1016165559#7 149143126#0 149143126#1 149143126#2 149143126#3 1015385206#6 1015385206#7 1015385206#8 149143125#0 271757268#10 271757268#11 271757268#12 271757268#13 271757268#14 271757268#15 271757268#16 271757268#17 271757268#18 334648169#0 334648169#1 334648169#2 334648169#3 334648169#4 334648169#5 334648169#6 230162637#1 230162637#2 -335527417#0 -569301649#9 -569301649#8 -387479881 387284569#5 -387479880#1"/>
    </vehicle>
    <vehicle id="12" depart="12.00">
        <route edges="768807497#5 335561985#19 335531755#0 335531755#1 764285479#0 764285479#1 764285479#2 764285479#3 764285479#4 764285479#5 764285483#0 764285483#1 764285483#2 764285483#3 764285483#4 764285483#5 257221752#2 257221752#3 257221752#4 257221752#5 257221752#6 257221751#0 257221751#1 257221751#2 257221751#3 1226933237#1 1226933237#2 1226933237#3"/>
    </vehicle>
    <vehicle id="13" depart="13.00">
        <route edges="-273400140#0 -273400139#2 -273400139#1 -273400139#0 230162177#3 230162177#4 764286717#4 764285479#4 764285479#5 764285483#0 764285471#6 550169297#0 550169297#1 550169297#2 550169297#3 230061209#0 334971102#0 334971102#1 275396954#0 275396954#1 275396954#2 275396954#3 275396955#1 275396955#2 -287806873"/>
    </vehicle>
    <vehicle id="14" depart="14.00">
        <route edges="601983501#5 601983501#6 230061209#9 781583888#0 271757268#13 271757268#14 271757268#15 271757268#16 271757268#17 271757268#18 318889170#0 318889170#1 335531746#0 335531746#1 335531746#2 335531746#3 335531746#4 335531746#5 335531746#6 764286727#0 764286727#1 764286727#2 764286727#3 764286727#4 764286727#5 318889172#1"/>
    </vehicle>
    <vehicle id="15" depart="15.00">
        <route edges="550169298#0 -230060559#3 28257724#3 28257724#4 335531756#6 335531756#7 335531756#8 335531756#9 1015385206#1 1015385206#2 1015385206#3 1015385206#4 1015385206#5 1015385206#6 1015385206#7 1015385206#8 149143125#0 271757268#10 271757268#11 271757268#12 271757268#13 271757268#14 271757268#15 271757268#16 271757268#17 271757268#18 334648169#0 334648169#1 334648169#2 334648169#3 334648169#4 334648169#5 334648169#6 230162637#1 230162637#2 -335527417#0 -569301649#9 -569301649#8 -569301649#7 -569301649#6 -569301649#5 -569301649#4 387313832#0 387313832#1 387313832#2 387313832#3 387313832#4 391183867#0"/>
    </vehicle>
    <vehicle id="16" depart="16.00">
        <route edges="268551250 268551248#0 268551248#1 268551248#2 268551248#3 268551248#4 268551248#5 550169281#3 550169281#4 550169281#5 550169281#6 550169281#7 550169281#8 550169281#9 335531756#0 335531756#1 335531756#2 335531756#3 335531756#4 335531756#5 335531756#6 335531756#7 335531756#8 335531756#9 1015385206#1 1015385206#2 1015385206#3 1015385206#4 1015385206#5 1015385206#6 1015385206#7 1015385206#8 149143125#0 271757268#10 271757268#11 271757268#12 271757268#13 271757268#14 781583886#2 781583886#3 -230161136#4 -230161136#3 -230161136#2 -230161136#1 318889166#2 318889166#3 230161134#0 230161134#1 230161134#2 768807525#1"/>
    </vehicle>
    <vehicle id="17" depart="17.00">
        <route edges="158798927#7 158798927#8 158798927#9 158798927#10 158798927#11 158798927#12 334971102#3 230162177#1 230162177#2 273400139#0 273400138 -273400139#3 273400140#0"/>
    </vehicle>
    <vehicle id="19" depart="19.00">
        <route edges="601983503#8 230162765#7 335561985#17 335561985#18 335561985#19 335531755#0 335531755#1 764285479#0 764285479#1 764285479#2 764285479#3 764285479#4 764285479#5 764285483#0 764285471#6 550169297#0 550169297#1 550169297#2 550169297#3 550169297#4 550169296#0 550169296#1 550169296#2 550169296#3 550169296#4 550169296#5 550169296#6 550169296#7 550169296#8 550169296#9 550169296#10 422148128#0 422148128#1 295108303#1 295108303#2 295108297#5 295108297#6 295108297#7"/>
    </vehicle>
    <vehicle id="20" depart="20.00">
        <route edges="375030010 375030009#1 375030009#2 334648167#1 334648167#2 230162642#10 230162642#11 230162642#12 768807497#2 768807497#3 768807497#4 768807497#5 335561985#19 335531755#0 335531755#1 335531755#2 335531755#3 335531755#4 335531755#5 335531755#6 335531755#7 335531755#8 335531755#9 335531755#10 149143125#0 149143125#1 149143125#2 -230161136#8 -230161136#7"/>
    </vehicle>
    <vehicle id="21" depart="21.00">
        <route edges="1014514161#7 1015227218 318889175#1 1270795083#0 1270795083#1 1270795083#2 257222257 764285471#0 764285471#1 764285471#2 764285471#3 764285471#4 764285471#5 764285471#6 550169297#0 550169297#1 550169297#2 550169297#3 230061209#0 334971102#0 334971102#1 275396954#0 1016489501#5"/>
    </vehicle>
    <vehicle id="22" depart="22.00">
        <route edges="-257222261#4 257222261#4 764285471#0 764285471#1 764285471#2 764285471#3 764285471#4 764285471#5 764285471#6 550169297#0 550169297#1 550169297#2 550169297#3 550169297#4 550169296#0 550169296#1 550169296#2 1015385206#0 1015385206#1 1015385206#2 1015385206#3 1015385206#4 1015385206#5 149143126#4 1015385205#3 1015385205#4 1015385205#5"/>
    </vehicle>
    <vehicle id="23" depart="23.00">
        <route edges="-287806874#0 -275396954#1 -275396954#0 334971102#2 764285469#0 550169297#1 550169297#2 550169297#3 550169297#4 550169296#0 550169296#1 550169296#2 550169296#3 550169296#4 550169296#5 28257724#4 148910933#0 148910933#1 148910933#2 148910933#3 1016165560#0 1016165560#1"/>
    </vehicle>
    <vehicle id="25" depart="25.00">
        <route edges="158798926#1 764286719#3 764286719#4 335531746#2 335531746#3 335531746#4 -271701496#1 -271701496#0 318889165#1 1015227217 768807497#1 768807497#2 230162642#0 230162642#1 230162642#2 230162642#3 230162642#4 230162642#5 230162642#6 230162642#7 1014488831#0 1014488831#1"/>
    </vehicle>
    <vehicle id="26" depart="26.00">
        <route edges="1016017691#0 -230161524#2 550169299#1 550169299#2 550169299#3 550169299#4 550169299#5 550169299#6 550169299#7 550169299#8 550169299#9 550169293#8 1016165560#0 1016165560#1 1016165560#2 246281523#0 246281523#1 764286722#0"/>
    </vehicle>
    <vehicle id="27" depart="27.00">
        <route edges="334971104#0 334971104#1 334971104#2 334971104#3 334971104#4 334971104#5 334971104#6 334971104#7 334971104#8 334971104#9 271757272 271757268#0 271757268#1 271757268#2 271757268#3 271757268#4 271757268#5 148910933#9 148910933#10 148910933#11 148910933#12 1006223920 318889173#0 318889173#1 318889173#2 318889173#3 318889173#4"/>
    </vehicle>
    <vehicle id="28" depart="28.00">
        <route edges="-391183867#1 391183865#1 391183865#2"/>
    </vehicle>
    <vehicle id="29" depart="29.00">
        <route edges="-387496908#1 -387496908#0 271449472#1 271449472#2 569301649#0 764116222#0 764116222#1 764116222#2 335527418#0 335527418#1 335527418#2 335561985#13 335561985#14 335561985#15 335561985#16 335561985#17 335561985#18 335561985#19 318889170#1 335531746#0 335531746#1 335531746#2 335531746#3 335531746#4 -230164323#2 -230164323#1 334971101#5 -257222256#0 -257222261#4 -257222261#3 -257222261#2 158798932#6"/>
    </vehicle>
    <vehicle id="30" depart="30.00">
        <route edges="781583888#2 -230161136#6 1015258964#2 1015258964#3 1015258964#4 1015712065#0 1015712065#1 1015712065#2 1015712065#3 1015712065#4 1015712065#5 1015712065#6 1015712065#7 334971102#1 334971102#2"/>
    </vehicle>
    <vehicle id="31" depart="31.00">
        <route edges="271757268#9 271757268#10 550169294#7 335531755#10 335531755#11 335531755#12 335531755#13 550169299#5 550169299#6 550169299#7 550169299#8 550169299#9 550169293#8 1016165560#0 1016165560#1 1016165560#2 246281523#0 246281523#1 246281523#2 343659153#0 343659153#1"/>
    </vehicle>
    <vehicle id="32" depart="32.00">
        <route edges="601983501#0 764285479#1 764285479#2 764285479#3 764285479#4 764285479#5 764285483#0 764285471#6 550169297#0 550169297#1 550169297#2 550169297#3 550169297#4 550169296#0 550169296#1 550169296#2 550169296#3 550169296#4 550169296#5 550169296#6 550169296#7 550169296#8 550169296#9 550169296#10 422148128#0 422148128#1 422148128#2 422148128#3 422148128#4 422148128#5 422148128#6 550169284#1 550169284#2 550169284#3 550169284#4"/>
    </vehicle>
    <vehicle id="33" depart="33.00">
        <route edges="1015248028#0 240265325#0 335531746#6 764286727#0 1270795083#2 257222257 764285471#0 764285471#1 764285471#2 764285471#3 764285471#4 764285471#5 764285471#6 550169297#0 550169297#1 550169297#2 550169297#3 550169297#4 550169296#0 550169296#1 550169296#2 550169296#3 550169296#4 550169296#5 550169296#6 550169296#7 550169296#8 550169296#9 550169296#10 422148128#0 422148128#1 422148128#2 422148128#3 422148128#4 422148128#5 422148128#6 422148128#7 422148128#8 422148128#9 422148128#10 550169282#3 550169282#4 -230059698#0"/>
    </vehicle>
    <vehicle id="34" depart="34.00">
        <route edges="1016489554#1 1016489555 1226933219#0 1226933219#1 230058791#0 334971104#6 334971104#7 334971104#8 334971104#9 271757272 271757268#0 271757268#1 271757268#2 271757268#3 271757268#4 271757268#5 271757268#6 550169299#4 550169299#5 550169299#6 550169299#7 550169299#8 149143126#1 149143126#2 149143126#3 149143126#4 149143126#5 149143126#6 149143126#7 1015712065#3 1015712065#4 -230161692#5 230061209#4 1016165552"/>
    </vehicle>
    <vehicle id="35" depart="35.00">
        <route edges="1013535602#3 230162642#4 230162642#5 230162642#6 230162642#7 230162642#8 230162642#9 230162642#10 230162642#11 230162642#12 768807497#2 768807497#3 768807497#4 768807497#5 335561985#19 318889170#1 335531746#0 335531746#1 335531746#2 335531746#3 335531746#4 335531746#5 335531746#6 764286727#0 764286727#1 158798929#0 764286723#5"/>
    </vehicle>
    <vehicle id="36" depart="36.00">
        <route edges="764116243#3 569301649#9 335527418#0 335527418#1 335527418#2 335561985#13 335561985#14 335561985#15 335561985#16 335561985#17 335561985#18 335561985#19 335531755#0 335531755#1 335531755#2 335531755#3 335531755#4 335531755#5 335531755#6 335531755#7 335531755#8 335531755#9 335531755#10 335531755#11 335531755#12 335531755#13 550169299#5 550169299#6 550169299#7 550169299#8 550169299#9 550169299#10 550169299#11 550169299#12 550169299#13 550169299#14 550169298#0 -230060559#3 -230060559#2 -230060559#1 -230060559#0 -230059778#2 1164266867#0"/>
    </vehicle>
    <vehicle id="38" depart="38.00">
        <route edges="764285488#2 -257222261#0 28257723#0 28257723#1 28257723#2 764286723#3 764286723#4 764286723#5 764286723#6 1015248028#0 1015248028#1 230164323#2 -271701496#1 -271701496#0 318889165#1 1015227217 768807497#1 768807497#2 230162642#0 230162642#1 230162642#2 230162638#0 230162638#1 230162638#2 230162638#3 230162637#0 230162637#1 230162637#2 -335527417#0 -569301649#9 -569301649#8 -569301649#7 -569301649#6 230163882#0 230163882#1"/>
    </vehicle>
    <vehicle id="39" depart="39.00">
        <route edges="1016017681#4 230058791#2 246285596#0 230058672#11 1016017684#0 1016017684#1 334971104#8 334971104#9 271757272 271757268#0 271757268#1 271757268#2 271757268#3 271757268#4 271757268#5 271757268#6 271757268#7 271757268#8 271757268#9 271757268#10 271757268#11 271757268#12 271757268#13 1015258964#4 1015712065#0 1015712065#1"/>
    </vehicle>
    <vehicle id="40" depart="40.00">
        <route edges="271757278#0 271757278#1 271757268#3 1016070731 335531755#17 1016070727#2 1016070727#3"/>
    </vehicle>
    <vehicle id="41" depart="41.00">
        <route edges="295108297#5 -295108297#5 -295108297#4 295108302#1 295108302#2 295108302#3 550169281#7 550169281#8 550169281#9 335531756#0 335531756#1 335531756#2 335531756#3 335531756#4 335531756#5 335531756#6 335531756#7 335531756#8 335531756#9 335531756#10 335531756#11 334971102#0 334971102#1 334971102#2 764285469#0 764285469#1"/>
    </vehicle>
    <vehicle id="43" depart="43.00">
        <route edges="93087731#0 93087731#1 93087731#2 93087731#3 334971104#3 334971104#4 334971104#5 334971104#6 334971104#7 334971104#8 334971104#9 271757272 271757268#0 271757268#1 271757268#2 271757268#3 271757268#4 271757268#5 271757268#6 271757268#7 271757268#8 271757268#9 271757268#10 271757268#11 271757268#12 271757268#13 271757268#14 271757268#15 271757268#16 271757268#17 271757268#18 318889170#0 318889170#1 335531746#0 335531746#1 335531746#2 335531746#3 335531746#4 -230164323#2 -230164323#1 334971101#5 -257222256#0 -257222261#4 -257222261#3 -257222261#2 257222261#2"/>
    </vehicle>
    <vehicle id="44" depart="44.00">
        <route edges="-271701496#1 230164319#1 240265326#0 240265326#1 240265326#2 335531755#1 335531755#2 335531755#3 335531755#4 335531755#5 335531755#6 335531755#7 335531755#8 335531755#9 335531755#10 149143125#0 149143125#1 149143125#2 -230161136#8 -230161136#7"/>
    </vehicle>
    <vehicle id="45" depart="45.00">
        <route edges="-295108297#7 -295108297#6 -295108297#5 -295108297#4 295108302#1 295108302#2 295108302#3 550169281#7 550169281#8 550169281#9 335531756#0 335531756#1 335531756#2 335531756#3 335531756#4 335531756#5 335531756#6 335531756#7 335531756#8 335531756#9 1015385206#1 1015385206#2 1015385206#3 1015385206#4 1015385206#5 1015385206#6 1015385206#7 1015385206#8 149143125#0 271757268#10 271757268#11 271757268#12 271757268#13 271757268#14 271757268#15 271757268#16 271757268#17 271757268#18 334648169#0 334648169#1 334648169#2"/>
    </vehicle>
    <vehicle id="46" depart="46.00">
        <route edges="550169294#4 550169294#5 550169294#6 550169294#7 1015385205#0 1015385205#1 1015385205#2 149143126#5 149143126#6 230061209#7 230061209#8"/>
    </vehicle>
    <vehicle id="47" depart="47.00">
        <route edges="-230163882#1 -230163882#0 569301649#6 569301649#7 569301649#8 569301649#9 335527418#0 335527418#1 335527418#2 335561985#13 335561985#14 335561985#15 335561985#16 335561985#17 335561985#18 335561985#19 318889170#1 335531746#0 335531746#1 335531746#2 335531746#3 335531746#4 335531746#5 335531746#6 764286727#0 764286727#1 158798929#0 158798929#1 158798925#1 158798932#7"/>
    </vehicle>
    <vehicle id="48" depart="48.00">
        <route edges="93087731#0 93087731#1 93087731#2 93087731#3 334971104#3 334971104#4 334971104#5 334971104#6 334971104#7 334971104#8 334971104#9 271757272 271757268#0 271757268#1 271757268#2 271757268#3 271757268#4 271757268#5 271757268#6 271757268#7 271757268#8 271757268#9 271757268#10 271757268#11 271757268#12 271757268#13 271757268#14 271757268#15 271757268#16 271757268#17 271757268#18 334648169#0 334648169#1 334648169#2 271449473#1 271449473#2"/>
    </vehicle>
    <vehicle id="49" depart="49.00">
        <route edges="768807512#0 230060559#2 28257724#3 28257724#4 148910933#0 148910933#1 148910933#2 148910933#3 148910933#4 148910933#5 148910933#6 148910933#7 148910933#8 148910933#9 148910933#10 148910933#11 -230161524#0 683111052#1"/>
    </vehicle>
    <vehicle id="50" depart="50.00">
        <route edges="-158798925#1 -158798929#1 764286723#5 764286723#6 1015248028#0 1015248028#1 230164323#2 -271701496#1 -271701496#0 318889165#1 1015227217 768807497#1 768807497#2 230162642#0 230162642#1 230162642#2 230162638#0 230162638#1 230162638#2 230162638#3 230162637#0 230162637#1 230162637#2 569301653#0 569301653#1 569301653#2 -271449472#2 -271449472#1 387496908#0 387496908#1"/>
    </vehicle>
    <vehicle id="51" depart="51.00">
        <route edges="335561985#11 335561985#12 335561985#13 335561985#14 335561985#15 335561985#16 335561985#17 335561985#18 335561985#19 335531755#0 335531755#1 335531755#2 335531755#3 335531755#4 335531755#5 781583886#1 271757268#15 271757268#16"/>
    </vehicle>
    <vehicle id="52" depart="52.00">
        <route edges="1016017691#0 -230161524#2 550169299#1 550169299#2 550169299#3 550169299#4 550169299#5 550169299#6 550169299#7 550169299#8 550169299#9 550169299#10 550169299#11 550169299#12 550169299#13 335531756#7 335531756#8 335531756#9 335531756#10 335531756#11 334971102#0 334971102#1 334971102#2"/>
    </vehicle>
    <vehicle id="53" depart="53.00">
        <route edges="-295108297#7 -295108297#6 -295108297#5 -295108297#4 295108302#1 295108302#2 295108302#3 550169281#7 550169281#8 550169281#9 335531756#0 335531756#1 335531756#2 335531756#3 335531756#4 335531756#5 335531756#6 335531756#7 335531756#8 335531756#9 335531756#10 335531756#11 334971102#0 334971102#1 334971102#2 334971102#3 230162177#1 230162177#2 230162177#3 230162177#4 230162177#5"/>
    </vehicle>
    <vehicle id="54" depart="54.00">
        <route edges="230161692#2 230161692#3 1015385205#6 1015385205#7 335531756#11 334971102#0 334971102#1 334971102#2 334971102#3 334971102#4 334971101#0 334971101#1 334971101#2 334971101#3 334971101#4 334971101#5 764286718 1270795082#0 764286727#0 764286727#1 764286727#2 764286727#3 764286727#4 764286727#5"/>
    </vehicle>
    <vehicle id="55" depart="55.00">
        <route edges="764116243#2 764116243#3 569301649#9 335527418#0 335527418#1 335527418#2 335561985#13 335561985#14 335561985#15 335561985#16 335561985#17 335561985#18 335561985#19 335531755#0 335531755#1 335531755#2 335531755#3 335531755#4 335531755#5 335531755#6 335531755#7 335531755#8 335531755#9 335531755#10 335531755#11 335531755#12 335531755#13 335531755#14 335531755#15 335531755#16 335531755#17 1016070727#2 1016070727#3"/>
    </vehicle>
    <vehicle id="56" depart="56.00">
        <route edges="246285599#0 271757279 271757278#0 271757278#1 271757268#3 271757268#4 271757268#5 271757268#6 271757268#7 271757268#8 271757268#9 271757268#10 271757268#11 271757268#12 271757268#13 271757268#14 271757268#15 271757268#16 271757268#17 271757268#18 334648169#0 334648169#1 334648169#2 334648169#3 334648169#4 334648169#5 334648169#6 230162637#1 230162637#2 569301653#0 569301653#1 569301653#2 569301649#0 569301649#1 569301649#2 -569301649#2"/>
    </vehicle>
    <vehicle id="57" depart="57.00">
        <route edges="764285488#0 -158798933#0 338280499#0 764285489#1 257221752#4 257221752#5 257221752#6 257221751#0 257221751#1 257221751#2 257221751#3 257221751#4 257221751#5 257221751#6 28257724#1 28257724#2 28257724#3 28257724#4 148910933#0 148910933#1 148910933#2 148910933#3 148910933#4 148910933#5 148910933#6 148910933#7 148910933#8 148910933#9 148910933#10 148910933#11 -230161524#0 683111052#1 1016017699 764116238#0 764116238#1 764116238#2"/>
    </vehicle>
    <vehicle id="58" depart="58.00">
        <route edges="1016489501#2 1016489501#3 1015712065#7 334971102#1"/>
    </vehicle>
    <vehicle id="59" depart="59.00">
        <route edges="318889170#1 335531746#0 240265326#0 240265326#1 240265326#2 240265326#3 271757268#18 334648169#0 334648169#1 334648169#2 334648169#3 334648169#4 334648169#5 334648169#6 230162637#1 230162637#2 -335527417#0 -569301649#9 -569301649#8 -569301649#7 -569301649#6 -569301649#5 -569301649#4 387313832#0 387313833#0 -387313833#0"/>
    </vehicle>
    <vehicle id="60" depart="60.00">
        <route edges="550169281#2 550169281#3 550169281#4 230061077#1 230061077#2 1016489554#0 1016489554#1 1016489555 1226933219#0 1226933219#1 230058791#0 334971104#6 334971104#7 334971104#8 334971104#9 271757272 271757268#0 271757268#1 271757268#2"/>
    </vehicle>
    <vehicle id="61" depart="61.00">
        <route edges="550169292#2 550169292#3 28257724#2 28257724#3 28257724#4 335531756#6 335531756#7 335531756#8 335531756#9 335531756#10 335531756#11 334971102#0 334971102#1 334971102#2 -264413377#2 -264413377#1 -264413377#0 764286717#2 -271676617#0 271676616#2"/>
    </vehicle>
    <vehicle id="62" depart="62.00">
        <route edges="-1011288865#1 -1011288865#0 -387284953#1 -387284953#0 335527417#3 335527417#4 230162764#0 230162764#1 230162764#2 230162764#3 335561985#16 335561985#17 335561985#18 335561985#19 335531755#0 335531755#1 764285479#0 764285479#1 764285479#2 764285479#3 764285479#4 764285479#5 764285483#0 764285471#6 550169297#0 550169297#1 550169297#2 550169297#3 550169297#4 550169296#0 550169296#1 550169296#2 550169296#3 550169296#4 550169296#5 550169296#6 550169296#7 550169296#8 550169296#9 550169296#10 422148128#0 422148128#1 422148128#2 422148128#3 422148128#4 422148128#5 422148128#6 550169284#1 550169284#2 550169284#3 550169284#4 550169284#5 1164266870#1 1164266870#2"/>
    </vehicle>
    <vehicle id="63" depart="63.00">
        <route edges="-158798929#8 -158798929#7 764285483#3 764285483#4 764285483#5 257221752#2 257221752#3 257221752#4 257221752#5 257221752#6 257221751#0 257221751#1 158798927#1 550169292#12 764285495"/>
    </vehicle>
    <vehicle id="64" depart="64.00">
        <route edges="764116249#0 230162178#0 768807525#5 768807525#6 334648169#2 334648169#3 1011288869#3 335561985#17 335561985#18 335561985#19 335531755#0 335531755#1 764285479#0 764285479#1 764285479#2 764285479#3 764285479#4 764285479#5 764285483#0 764285471#6 550169297#0 550169297#1 550169297#2 550169297#3 550169297#4 550169296#0 550169296#1 550169296#2 550169296#3 550169296#4 550169296#5 550169296#6 550169296#7 550169296#8 550169296#9 550169296#10 422148128#0 422148128#1 295108303#1 295108303#2 295108303#3 -295108299#2 -295108299#1 -295108297#2 -295108297#1 571216553"/>
    </vehicle>
    <vehicle id="65" depart="65.00">
        <route edges="1016489532#0 -569646608#0 335531757#3 246285601#0 1016165559#5 1016165559#6 1016165559#7 149143126#0 149143126#1 149143126#2 149143126#3 1015385206#6 1015385206#7 1015385206#8 149143125#0 271757268#10 271757268#11 271757268#12 271757268#13 271757268#14 271757268#15 271757268#16 271757268#17 271757268#18 334648169#0 334648169#1 334648169#2 334648169#3 1011288869#3 -230162765#7 -230162765#6 -230162765#5 -230162765#4 -230162765#3 -230162765#2"/>
    </vehicle>
    <vehicle id="66" depart="66.00">
        <route edges="764116243#8 230162642#5 230162642#6 230162642#7 230162642#8 230162642#9 230162642#10 230162642#11 230162642#12 768807497#2 768807497#3 768807497#4 768807497#5 335561985#19 318889170#1 335531746#0 335531746#1 335531746#2 764286725#0 764286725#1 764286725#2 764286725#3"/>
    </vehicle>
    <vehicle id="67" depart="67.00">
        <route edges="-271449470#1 271449470#1 -230162179#2 -230162179#1 -230162179#0 1011288869#0 1011288869#1 1011288869#2 1011288869#3 335561985#17 335561985#18 335561985#19 335531755#0 335531755#1 335531755#2 335531755#3 335531755#4 335531755#5 335531755#6 335531755#7 335531755#8 335531755#9 335531755#10 335531755#11 335531755#12 335531755#13 335531755#14 335531755#15 335531755#16 335531755#17 335531755#18 335531755#19 335531755#20 271757274 271757276#0 271757276#1 271757276#2 230058791#0 230058791#1 230058791#2 246285596#0 246285596#1"/>
    </vehicle>
    <vehicle id="68" depart="68.00">
        <route edges="-246285596#1 230058672#11 230058672#12 230058672#13 271757276#2 271757276#3 271757276#4 447230740#2 447230740#3"/>
    </vehicle>
    <vehicle id="69" depart="69.00">
        <route edges="550169281#9 335531756#0 335531756#1 335531756#2 335531756#3 335531756#4 335531756#5 335531756#6 335531756#7 335531756#8 335531756#9 1015385206#1 1015385206#2 1015385206#3 1015385206#4 1015385206#5 1015385206#6 1015385206#7 1015385206#8 149143125#0 271757268#10 271757268#11 271757268#12 271757268#13 271757268#14 271757268#15 271757268#16 271757268#17 271757268#18 334648169#0 334648169#1 334648169#2 334648169#3 334648169#4 -230162764#2 -230162764#1 -374519308#6 -374519309"/>
    </vehicle>
    <vehicle id="70" depart="70.00">
        <route edges="230162767#0 230162767#1 230162767#2 764116222#1 764116222#2 335527418#0 335527418#1 335527418#2 335561985#13 335561985#14 335561985#15 335561985#16 335561985#17 335561985#18 335561985#19 335531755#0 335531755#1 335531755#2 335531755#3 335531755#4 335531755#5 335531755#6 335531755#7 335531755#8 335531755#9 335531755#10 335531755#11 335531755#12 335531755#13 335531755#14 335531755#15 335531755#16 335531755#17 335531755#18 335531755#19 335531755#20 271757274 271757276#0 271757276#1 271757276#2 271757276#3 271757276#4 271757276#5 271757276#6 271757276#7"/>
    </vehicle>
    <vehicle id="71" depart="71.00">
        <route edges="1016017681#4 230058791#2 246285596#0 246285596#1 -267304041#1 -267304041#0 764116238#2"/>
    </vehicle>
    <vehicle id="72" depart="72.00">
        <route edges="230059418#2 230059418#3 334971104#2 334971104#3 334971104#4 334971104#5 334971104#6 334971104#7 334971104#8 334971104#9 271757272 271757268#0 271757268#1 271757268#2 271757268#3 271757268#4 271757268#5 271757268#6 271757268#7 271757268#8 271757268#9 271757268#10 271757268#11 271757268#12 271757268#13 271757268#14 271757268#15 271757268#16 271757268#17 271757268#18 334648169#0 334648169#1 334648169#2 334648169#3 1011288869#3 335561985#17 768807509#0 768807509#1 768807509#2 768807509#3 230162642#1 230162642#2 230162642#3 230162642#4 230162642#5 230162642#6 230162642#7 1014488831#0 1014488831#1"/>
    </vehicle>
    <vehicle id="73" depart="73.00">
        <route edges="268551251#5 1164264331#2 1164264331#3 268551248#4 268551248#5 550169281#3 550169281#4 550169281#5 550169281#6 550169281#7 550169281#8 550169281#9 335531756#0 335531756#1 335531756#2 335531756#3 335531756#4 335531756#5 335531756#6 335531756#7 335531756#8 335531756#9 1015385206#1 1015385206#2 1015385206#3 1015385206#4 1015385206#5 1015385206#6 1015385206#7 1015385206#8 149143125#0 271757268#10 271757268#11 271757268#12 271757268#13 271757268#14 271757268#15 271757268#16 271757268#17 271757268#18 334648169#0 334648169#1 334648169#2 334648169#3 334648169#4 334648169#5 334648169#6 230162637#1 230162637#2 -335527417#0 -569301649#9 -569301649#8 -569301649#7 -569301649#6 -569301649#5 -569301649#4 387313832#0 387313832#1 387313832#2 387313832#3 387313832#4 391183867#0 391183867#1"/>
    </vehicle>
    <vehicle id="74" depart="74.00">
        <route edges="-595971735 -595971731#1 -595971731#0 230059418#8 230059418#9 230059418#10 268551251#0 268551251#1 268551251#2 268551251#3 550169281#2 550169281#3 550169284#0 550169284#1 550169284#2 550169284#3 1164264332#0 1164264332#1"/>